Circuit: * C:\Latest Projects\Muniz-Marcaida\Speed_Controller.asc

Limiting rise time of source v1 to 5e-005
Limiting fall time of source v1 to 5e-005
Direct Newton iteration for .op point succeeded.

Date: Fri Mar 06 13:03:05 2020
Total elapsed time: 0.120 seconds.

tnom = 27
temp = 27
method = modified trap
totiter = 6005
traniter = 5982
tranpoints = 1955
accept = 1663
rejected = 292
matrix size = 17
fillins = 0
solver = Normal
Matrix Compiler1: 686 bytes object code size  0.2/0.1/[0.1]
Matrix Compiler2: off  [0.1]/0.2/0.1

